# omnet.ini
[General]
network = MM1
sim-time-limit = 100s
**.interArrivalTime=exponential(2)
**.serviceTime=exponential(0.8)
